780
 C    3.325332   -0.337662    1.190339
 C   -3.325332    0.337662   -1.190339
 C  -10.345331    0.337662   -5.829660
 C  -10.345331    0.337662    8.210340
 C    3.694668    0.337662   -5.829660
 C    3.694668    0.337662    8.210340
 C   -3.694669   -0.337662   -8.210340
 C   -3.694669   -0.337662    5.829660
 C   10.345331   -0.337662   -8.210340
 C   10.345331   -0.337662    5.829660
 C   -3.325332   -7.357662   -8.210340
 C   -3.325332   -7.357662    5.829660
 C   -3.325332    6.682338   -8.210340
 C   -3.325332    6.682338    5.829660
 C    3.325332   -6.682338   -5.829660
 C    3.325332   -6.682338    8.210340
 C    3.325332    7.357662   -5.829660
 C    3.325332    7.357662    8.210340
 C   -3.694669   -6.682338   -1.190339
 C   -3.694669    7.357662   -1.190339
 C   10.345331   -6.682338   -1.190339
 C   10.345331    7.357662   -1.190339
 C  -10.345331   -7.357662    1.190339
 C  -10.345331    6.682338    1.190339
 C    3.694668   -7.357662    1.190339
 C    3.694668    6.682338    1.190339
 C    1.190339    3.325332   -0.337662
 C   -1.190339   -3.325332    0.337662
 C   -5.829660  -10.345331    0.337662
 C   -5.829660    3.694668    0.337662
 C    8.210340  -10.345331    0.337662
 C    8.210340    3.694668    0.337662
 C   -8.210340   -3.694669   -0.337662
 C   -8.210340   10.345331   -0.337662
 C    5.829660   -3.694669   -0.337662
 C    5.829660   10.345331   -0.337662
 C   -8.210340   -3.325332   -7.357662
 C   -8.210340   -3.325332    6.682338
 C    5.829660   -3.325332   -7.357662
 C    5.829660   -3.325332    6.682338
 C   -5.829660    3.325332   -6.682338
 C   -5.829660    3.325332    7.357662
 C    8.210340    3.325332   -6.682338
 C    8.210340    3.325332    7.357662
 C   -1.190339   -3.694669   -6.682338
 C   -1.190339   -3.694669    7.357662
 C   -1.190339   10.345331   -6.682338
 C   -1.190339   10.345331    7.357662
 C    1.190339  -10.345331   -7.357662
 C    1.190339  -10.345331    6.682338
 C    1.190339    3.694668   -7.357662
 C    1.190339    3.694668    6.682338
 C   -0.337662    1.190339    3.325332
 C    0.337662   -1.190339   -3.325332
 C    0.337662   -5.829660  -10.345331
 C    0.337662   -5.829660    3.694668
 C    0.337662    8.210340  -10.345331
 C    0.337662    8.210340    3.694668
 C   -0.337662   -8.210340   -3.694669
 C   -0.337662   -8.210340   10.345331
 C   -0.337662    5.829660   -3.694669
 C   -0.337662    5.829660   10.345331
 C   -7.357662   -8.210340   -3.325332
 C   -7.357662    5.829660   -3.325332
 C    6.682338   -8.210340   -3.325332
 C    6.682338    5.829660   -3.325332
 C   -6.682338   -5.829660    3.325332
 C   -6.682338    8.210340    3.325332
 C    7.357662   -5.829660    3.325332
 C    7.357662    8.210340    3.325332
 C   -6.682338   -1.190339   -3.694669
 C   -6.682338   -1.190339   10.345331
 C    7.357662   -1.190339   -3.694669
 C    7.357662   -1.190339   10.345331
 C   -7.357662    1.190339  -10.345331
 C   -7.357662    1.190339    3.694668
 C    6.682338    1.190339  -10.345331
 C    6.682338    1.190339    3.694668
 C    2.769671   -1.564337    1.573673
 C   -2.769671    1.564337   -1.573673
 C   -9.789671    1.564337   -5.446327
 C   -9.789671    1.564337    8.593673
 C    4.250329    1.564337   -5.446327
 C    4.250329    1.564337    8.593673
 C   -4.250329   -1.564337   -8.593674
 C   -4.250329   -1.564337    5.446327
 C    9.789671   -1.564337   -8.593674
 C    9.789671   -1.564337    5.446327
 C   -2.769671   -8.584337   -8.593674
 C   -2.769671   -8.584337    5.446327
 C   -2.769671    5.455663   -8.593674
 C   -2.769671    5.455663    5.446327
 C    2.769671   -5.455664   -5.446327
 C    2.769671   -5.455664    8.593673
 C    2.769671    8.584336   -5.446327
 C    2.769671    8.584336    8.593673
 C   -4.250329   -5.455664   -1.573673
 C   -4.250329    8.584336   -1.573673
 C    9.789671   -5.455664   -1.573673
 C    9.789671    8.584336   -1.573673
 C   -9.789671   -8.584337    1.573673
 C   -9.789671    5.455663    1.573673
 C    4.250329   -8.584337    1.573673
 C    4.250329    5.455663    1.573673
 C    1.573673    2.769671   -1.564337
 C   -1.573673   -2.769671    1.564337
 C   -5.446327   -9.789671    1.564337
 C   -5.446327    4.250329    1.564337
 C    8.593673   -9.789671    1.564337
 C    8.593673    4.250329    1.564337
 C   -8.593674   -4.250329   -1.564337
 C   -8.593674    9.789671   -1.564337
 C    5.446327   -4.250329   -1.564337
 C    5.446327    9.789671   -1.564337
 C   -8.593674   -2.769671   -8.584337
 C   -8.593674   -2.769671    5.455663
 C    5.446327   -2.769671   -8.584337
 C    5.446327   -2.769671    5.455663
 C   -5.446327    2.769671   -5.455664
 C   -5.446327    2.769671    8.584336
 C    8.593673    2.769671   -5.455664
 C    8.593673    2.769671    8.584336
 C   -1.573673   -4.250329   -5.455664
 C   -1.573673   -4.250329    8.584336
 C   -1.573673    9.789671   -5.455664
 C   -1.573673    9.789671    8.584336
 C    1.573673   -9.789671   -8.584337
 C    1.573673   -9.789671    5.455663
 C    1.573673    4.250329   -8.584337
 C    1.573673    4.250329    5.455663
 C   -1.564337    1.573673    2.769671
 C    1.564337   -1.573673   -2.769671
 C    1.564337   -5.446327   -9.789671
 C    1.564337   -5.446327    4.250329
 C    1.564337    8.593673   -9.789671
 C    1.564337    8.593673    4.250329
 C   -1.564337   -8.593674   -4.250329
 C   -1.564337   -8.593674    9.789671
 C   -1.564337    5.446327   -4.250329
 C   -1.564337    5.446327    9.789671
 C   -8.584337   -8.593674   -2.769671
 C   -8.584337    5.446327   -2.769671
 C    5.455663   -8.593674   -2.769671
 C    5.455663    5.446327   -2.769671
 C   -5.455664   -5.446327    2.769671
 C   -5.455664    8.593673    2.769671
 C    8.584336   -5.446327    2.769671
 C    8.584336    8.593673    2.769671
 C   -5.455664   -1.573673   -4.250329
 C   -5.455664   -1.573673    9.789671
 C    8.584336   -1.573673   -4.250329
 C    8.584336   -1.573673    9.789671
 C   -8.584337    1.573673   -9.789671
 C   -8.584337    1.573673    4.250329
 C    5.455663    1.573673   -9.789671
 C    5.455663    1.573673    4.250329
 C    1.842006    2.899260    0.885994
 C   -1.842006   -2.899260   -0.885994
 C   -8.862005   -2.899260   -6.134006
 C   -8.862005   -2.899260    7.905994
 C    5.177994   -2.899260   -6.134006
 C    5.177994   -2.899260    7.905994
 C   -5.177995    2.899260   -7.905994
 C   -5.177995    2.899260    6.134006
 C    8.862005    2.899260   -7.905994
 C    8.862005    2.899260    6.134006
 C   -1.842006   -4.120740   -7.905994
 C   -1.842006   -4.120740    6.134006
 C   -1.842006    9.919260   -7.905994
 C   -1.842006    9.919260    6.134006
 C    1.842006   -9.919260   -6.134006
 C    1.842006   -9.919260    7.905994
 C    1.842006    4.120740   -6.134006
 C    1.842006    4.120740    7.905994
 C   -5.177995   -9.919260   -0.885994
 C   -5.177995    4.120740   -0.885994
 C    8.862005   -9.919260   -0.885994
 C    8.862005    4.120740   -0.885994
 C   -8.862005   -4.120740    0.885994
 C   -8.862005    9.919260    0.885994
 C    5.177994   -4.120740    0.885994
 C    5.177994    9.919260    0.885994
 C    0.885994    1.842006    2.899260
 C   -0.885994   -1.842006   -2.899260
 C   -6.134006   -8.862005   -2.899260
 C   -6.134006    5.177994   -2.899260
 C    7.905994   -8.862005   -2.899260
 C    7.905994    5.177994   -2.899260
 C   -7.905994   -5.177995    2.899260
 C   -7.905994    8.862005    2.899260
 C    6.134006   -5.177995    2.899260
 C    6.134006    8.862005    2.899260
 C   -7.905994   -1.842006   -4.120740
 C   -7.905994   -1.842006    9.919260
 C    6.134006   -1.842006   -4.120740
 C    6.134006   -1.842006    9.919260
 C   -6.134006    1.842006   -9.919260
 C   -6.134006    1.842006    4.120740
 C    7.905994    1.842006   -9.919260
 C    7.905994    1.842006    4.120740
 C   -0.885994   -5.177995   -9.919260
 C   -0.885994   -5.177995    4.120740
 C   -0.885994    8.862005   -9.919260
 C   -0.885994    8.862005    4.120740
 C    0.885994   -8.862005   -4.120740
 C    0.885994   -8.862005    9.919260
 C    0.885994    5.177994   -4.120740
 C    0.885994    5.177994    9.919260
 C    2.899260    0.885994    1.842006
 C   -2.899260   -0.885994   -1.842006
 C   -2.899260   -6.134006   -8.862005
 C   -2.899260   -6.134006    5.177994
 C   -2.899260    7.905994   -8.862005
 C   -2.899260    7.905994    5.177994
 C    2.899260   -7.905994   -5.177995
 C    2.899260   -7.905994    8.862005
 C    2.899260    6.134006   -5.177995
 C    2.899260    6.134006    8.862005
 C   -4.120740   -7.905994   -1.842006
 C   -4.120740    6.134006   -1.842006
 C    9.919260   -7.905994   -1.842006
 C    9.919260    6.134006   -1.842006
 C   -9.919260   -6.134006    1.842006
 C   -9.919260    7.905994    1.842006
 C    4.120740   -6.134006    1.842006
 C    4.120740    7.905994    1.842006
 C   -9.919260   -0.885994   -5.177995
 C   -9.919260   -0.885994    8.862005
 C    4.120740   -0.885994   -5.177995
 C    4.120740   -0.885994    8.862005
 C   -4.120740    0.885994   -8.862005
 C   -4.120740    0.885994    5.177994
 C    9.919260    0.885994   -8.862005
 C    9.919260    0.885994    5.177994
 C    2.854332    1.934333    0.841333
 C   -2.854332   -1.934334   -0.841333
 C   -9.874332   -1.934334   -6.178667
 C   -9.874332   -1.934334    7.861333
 C    4.165668   -1.934334   -6.178667
 C    4.165668   -1.934334    7.861333
 C   -4.165668    1.934333   -7.861333
 C   -4.165668    1.934333    6.178667
 C    9.874332    1.934333   -7.861333
 C    9.874332    1.934333    6.178667
 C   -2.854332   -5.085667   -7.861333
 C   -2.854332   -5.085667    6.178667
 C   -2.854332    8.954333   -7.861333
 C   -2.854332    8.954333    6.178667
 C    2.854332   -8.954332   -6.178667
 C    2.854332   -8.954332    7.861333
 C    2.854332    5.085667   -6.178667
 C    2.854332    5.085667    7.861333
 C   -4.165668   -8.954332   -0.841333
 C   -4.165668    5.085667   -0.841333
 C    9.874332   -8.954332   -0.841333
 C    9.874332    5.085667   -0.841333
 C   -9.874332   -5.085667    0.841333
 C   -9.874332    8.954333    0.841333
 C    4.165668   -5.085667    0.841333
 C    4.165668    8.954333    0.841333
 C    0.841333    2.854332    1.934333
 C   -0.841333   -2.854332   -1.934334
 C   -6.178667   -9.874332   -1.934334
 C   -6.178667    4.165668   -1.934334
 C    7.861333   -9.874332   -1.934334
 C    7.861333    4.165668   -1.934334
 C   -7.861333   -4.165668    1.934333
 C   -7.861333    9.874332    1.934333
 C    6.178667   -4.165668    1.934333
 C    6.178667    9.874332    1.934333
 C   -7.861333   -2.854332   -5.085667
 C   -7.861333   -2.854332    8.954333
 C    6.178667   -2.854332   -5.085667
 C    6.178667   -2.854332    8.954333
 C   -6.178667    2.854332   -8.954332
 C   -6.178667    2.854332    5.085667
 C    7.861333    2.854332   -8.954332
 C    7.861333    2.854332    5.085667
 C   -0.841333   -4.165668   -8.954332
 C   -0.841333   -4.165668    5.085667
 C   -0.841333    9.874332   -8.954332
 C   -0.841333    9.874332    5.085667
 C    0.841333   -9.874332   -5.085667
 C    0.841333   -9.874332    8.954333
 C    0.841333    4.165668   -5.085667
 C    0.841333    4.165668    8.954333
 C    1.934333    0.841333    2.854332
 C   -1.934334   -0.841333   -2.854332
 C   -1.934334   -6.178667   -9.874332
 C   -1.934334   -6.178667    4.165668
 C   -1.934334    7.861333   -9.874332
 C   -1.934334    7.861333    4.165668
 C    1.934333   -7.861333   -4.165668
 C    1.934333   -7.861333    9.874332
 C    1.934333    6.178667   -4.165668
 C    1.934333    6.178667    9.874332
 C   -5.085667   -7.861333   -2.854332
 C   -5.085667    6.178667   -2.854332
 C    8.954333   -7.861333   -2.854332
 C    8.954333    6.178667   -2.854332
 C   -8.954332   -6.178667    2.854332
 C   -8.954332    7.861333    2.854332
 C    5.085667   -6.178667    2.854332
 C    5.085667    7.861333    2.854332
 C   -8.954332   -0.841333   -4.165668
 C   -8.954332   -0.841333    9.874332
 C    5.085667   -0.841333   -4.165668
 C    5.085667   -0.841333    9.874332
 C   -5.085667    0.841333   -9.874332
 C   -5.085667    0.841333    4.165668
 C    8.954333    0.841333   -9.874332
 C    8.954333    0.841333    4.165668
 C    2.621001    1.768001   -1.611006
 C   -2.621001   -1.768002    1.611006
 C   -9.641001   -1.768002   -8.631006
 C   -9.641001   -1.768002    5.408994
 C    4.398999   -1.768002   -8.631006
 C    4.398999   -1.768002    5.408994
 C   -4.398998    1.768001   -5.408994
 C   -4.398998    1.768001    8.631006
 C    9.641002    1.768001   -5.408994
 C    9.641002    1.768001    8.631006
 C   -2.621001   -5.251999   -5.408994
 C   -2.621001   -5.251999    8.631006
 C   -2.621001    8.788001   -5.408994
 C   -2.621001    8.788001    8.631006
 C    2.621001   -8.788001   -8.631006
 C    2.621001   -8.788001    5.408994
 C    2.621001    5.251999   -8.631006
 C    2.621001    5.251999    5.408994
 C   -4.398998   -8.788001    1.611006
 C   -4.398998    5.251999    1.611006
 C    9.641002   -8.788001    1.611006
 C    9.641002    5.251999    1.611006
 C   -9.641001   -5.251999   -1.611006
 C   -9.641001    8.788001   -1.611006
 C    4.398999   -5.251999   -1.611006
 C    4.398999    8.788001   -1.611006
 C   -1.611006    2.621001    1.768001
 C    1.611006   -2.621001   -1.768002
 C   -8.631006   -9.641001   -1.768002
 C   -8.631006    4.398999   -1.768002
 C    5.408994   -9.641001   -1.768002
 C    5.408994    4.398999   -1.768002
 C   -5.408994   -4.398998    1.768001
 C   -5.408994    9.641002    1.768001
 C    8.631006   -4.398998    1.768001
 C    8.631006    9.641002    1.768001
 C   -5.408994   -2.621001   -5.251999
 C   -5.408994   -2.621001    8.788001
 C    8.631006   -2.621001   -5.251999
 C    8.631006   -2.621001    8.788001
 C   -8.631006    2.621001   -8.788001
 C   -8.631006    2.621001    5.251999
 C    5.408994    2.621001   -8.788001
 C    5.408994    2.621001    5.251999
 C    1.611006   -4.398998   -8.788001
 C    1.611006   -4.398998    5.251999
 C    1.611006    9.641002   -8.788001
 C    1.611006    9.641002    5.251999
 C   -1.611006   -9.641001   -5.251999
 C   -1.611006   -9.641001    8.788001
 C   -1.611006    4.398999   -5.251999
 C   -1.611006    4.398999    8.788001
 C    1.768001   -1.611006    2.621001
 C   -1.768002    1.611006   -2.621001
 C   -1.768002   -8.631006   -9.641001
 C   -1.768002   -8.631006    4.398999
 C   -1.768002    5.408994   -9.641001
 C   -1.768002    5.408994    4.398999
 C    1.768001   -5.408994   -4.398998
 C    1.768001   -5.408994    9.641002
 C    1.768001    8.631006   -4.398998
 C    1.768001    8.631006    9.641002
 C   -5.251999   -5.408994   -2.621001
 C   -5.251999    8.631006   -2.621001
 C    8.788001   -5.408994   -2.621001
 C    8.788001    8.631006   -2.621001
 C   -8.788001   -8.631006    2.621001
 C   -8.788001    5.408994    2.621001
 C    5.251999   -8.631006    2.621001
 C    5.251999    5.408994    2.621001
 C   -8.788001    1.611006   -4.398998
 C   -8.788001    1.611006    9.641002
 C    5.251999    1.611006   -4.398998
 C    5.251999    1.611006    9.641002
 C   -5.251999   -1.611006   -9.641001
 C   -5.251999   -1.611006    4.398999
 C    8.788001   -1.611006   -9.641001
 C    8.788001   -1.611006    4.398999
 C    3.249993    1.358005   -0.428992
 C   -3.249993   -1.358006    0.428992
 C  -10.269994   -1.358006   -7.448992
 C  -10.269994   -1.358006    6.591008
 C    3.770006   -1.358006   -7.448992
 C    3.770006   -1.358006    6.591008
 C   -3.770006    1.358005   -6.591008
 C   -3.770006    1.358005    7.448992
 C   10.269994    1.358005   -6.591008
 C   10.269994    1.358005    7.448992
 C   -3.249993   -5.661995   -6.591008
 C   -3.249993   -5.661995    7.448992
 C   -3.249993    8.378005   -6.591008
 C   -3.249993    8.378005    7.448992
 C    3.249993   -8.378005   -7.448992
 C    3.249993   -8.378005    6.591008
 C    3.249993    5.661995   -7.448992
 C    3.249993    5.661995    6.591008
 C   -3.770006   -8.378005    0.428992
 C   -3.770006    5.661995    0.428992
 C   10.269994   -8.378005    0.428992
 C   10.269994    5.661995    0.428992
 C  -10.269994   -5.661995   -0.428992
 C  -10.269994    8.378005   -0.428992
 C    3.770006   -5.661995   -0.428992
 C    3.770006    8.378005   -0.428992
 C   -0.428992    3.249993    1.358005
 C    0.428992   -3.249993   -1.358006
 C   -7.448992  -10.269994   -1.358006
 C   -7.448992    3.770006   -1.358006
 C    6.591008  -10.269994   -1.358006
 C    6.591008    3.770006   -1.358006
 C   -6.591008   -3.770006    1.358005
 C   -6.591008   10.269994    1.358005
 C    7.448992   -3.770006    1.358005
 C    7.448992   10.269994    1.358005
 C   -6.591008   -3.249993   -5.661995
 C   -6.591008   -3.249993    8.378005
 C    7.448992   -3.249993   -5.661995
 C    7.448992   -3.249993    8.378005
 C   -7.448992    3.249993   -8.378005
 C   -7.448992    3.249993    5.661995
 C    6.591008    3.249993   -8.378005
 C    6.591008    3.249993    5.661995
 C    0.428992   -3.770006   -8.378005
 C    0.428992   -3.770006    5.661995
 C    0.428992   10.269994   -8.378005
 C    0.428992   10.269994    5.661995
 C   -0.428992  -10.269994   -5.661995
 C   -0.428992  -10.269994    8.378005
 C   -0.428992    3.770006   -5.661995
 C   -0.428992    3.770006    8.378005
 C    1.358005   -0.428992    3.249993
 C   -1.358006    0.428992   -3.249993
 C   -1.358006   -7.448992  -10.269994
 C   -1.358006   -7.448992    3.770006
 C   -1.358006    6.591008  -10.269994
 C   -1.358006    6.591008    3.770006
 C    1.358005   -6.591008   -3.770006
 C    1.358005   -6.591008   10.269994
 C    1.358005    7.448992   -3.770006
 C    1.358005    7.448992   10.269994
 C   -5.661995   -6.591008   -3.249993
 C   -5.661995    7.448992   -3.249993
 C    8.378005   -6.591008   -3.249993
 C    8.378005    7.448992   -3.249993
 C   -8.378005   -7.448992    3.249993
 C   -8.378005    6.591008    3.249993
 C    5.661995   -7.448992    3.249993
 C    5.661995    6.591008    3.249993
 C   -8.378005    0.428992   -3.770006
 C   -8.378005    0.428992   10.269994
 C    5.661995    0.428992   -3.770006
 C    5.661995    0.428992   10.269994
 C   -5.661995   -0.428992  -10.269994
 C   -5.661995   -0.428992    3.770006
 C    8.378005   -0.428992  -10.269994
 C    8.378005   -0.428992    3.770006
 C   -0.565672   -2.409672    2.542335
 C    0.565672    2.409671   -2.542336
 C   -6.454329    2.409671   -4.477665
 C   -6.454329    2.409671    9.562335
 C    7.585671    2.409671   -4.477665
 C    7.585671    2.409671    9.562335
 C   -7.585671   -2.409672   -9.562336
 C   -7.585671   -2.409672    4.477664
 C    6.454329   -2.409672   -9.562336
 C    6.454329   -2.409672    4.477664
 C    0.565672   -9.429671   -9.562336
 C    0.565672   -9.429671    4.477664
 C    0.565672    4.610329   -9.562336
 C    0.565672    4.610329    4.477664
 C   -0.565672   -4.610329   -4.477665
 C   -0.565672   -4.610329    9.562335
 C   -0.565672    9.429671   -4.477665
 C   -0.565672    9.429671    9.562335
 C   -7.585671   -4.610329   -2.542336
 C   -7.585671    9.429671   -2.542336
 C    6.454329   -4.610329   -2.542336
 C    6.454329    9.429671   -2.542336
 C   -6.454329   -9.429671    2.542335
 C   -6.454329    4.610329    2.542335
 C    7.585671   -9.429671    2.542335
 C    7.585671    4.610329    2.542335
 C    2.542335   -0.565672   -2.409672
 C   -2.542336    0.565672    2.409671
 C   -4.477665   -6.454329    2.409671
 C   -4.477665    7.585671    2.409671
 C    9.562335   -6.454329    2.409671
 C    9.562335    7.585671    2.409671
 C   -9.562336   -7.585671   -2.409672
 C   -9.562336    6.454329   -2.409672
 C    4.477664   -7.585671   -2.409672
 C    4.477664    6.454329   -2.409672
 C   -9.562336    0.565672   -9.429671
 C   -9.562336    0.565672    4.610329
 C    4.477664    0.565672   -9.429671
 C    4.477664    0.565672    4.610329
 C   -4.477665   -0.565672   -4.610329
 C   -4.477665   -0.565672    9.429671
 C    9.562335   -0.565672   -4.610329
 C    9.562335   -0.565672    9.429671
 C   -2.542336   -7.585671   -4.610329
 C   -2.542336   -7.585671    9.429671
 C   -2.542336    6.454329   -4.610329
 C   -2.542336    6.454329    9.429671
 C    2.542335   -6.454329   -9.429671
 C    2.542335   -6.454329    4.610329
 C    2.542335    7.585671   -9.429671
 C    2.542335    7.585671    4.610329
 C   -2.409672    2.542335   -0.565672
 C    2.409671   -2.542336    0.565672
 C    2.409671   -4.477665   -6.454329
 C    2.409671   -4.477665    7.585671
 C    2.409671    9.562335   -6.454329
 C    2.409671    9.562335    7.585671
 C   -2.409672   -9.562336   -7.585671
 C   -2.409672   -9.562336    6.454329
 C   -2.409672    4.477664   -7.585671
 C   -2.409672    4.477664    6.454329
 C   -9.429671   -9.562336    0.565672
 C   -9.429671    4.477664    0.565672
 C    4.610329   -9.562336    0.565672
 C    4.610329    4.477664    0.565672
 C   -4.610329   -4.477665   -0.565672
 C   -4.610329    9.562335   -0.565672
 C    9.429671   -4.477665   -0.565672
 C    9.429671    9.562335   -0.565672
 C   -4.610329   -2.542336   -7.585671
 C   -4.610329   -2.542336    6.454329
 C    9.429671   -2.542336   -7.585671
 C    9.429671   -2.542336    6.454329
 C   -9.429671    2.542335   -6.454329
 C   -9.429671    2.542335    7.585671
 C    4.610329    2.542335   -6.454329
 C    4.610329    2.542335    7.585671
 C    0.792670   -2.624329    2.255666
 C   -0.792670    2.624329   -2.255667
 C   -7.812670    2.624329   -4.764333
 C   -7.812670    2.624329    9.275667
 C    6.227330    2.624329   -4.764333
 C    6.227330    2.624329    9.275667
 C   -6.227330   -2.624329   -9.275666
 C   -6.227330   -2.624329    4.764334
 C    7.812670   -2.624329   -9.275666
 C    7.812670   -2.624329    4.764334
 C   -0.792670   -9.644329   -9.275666
 C   -0.792670   -9.644329    4.764334
 C   -0.792670    4.395671   -9.275666
 C   -0.792670    4.395671    4.764334
 C    0.792670   -4.395671   -4.764333
 C    0.792670   -4.395671    9.275667
 C    0.792670    9.644329   -4.764333
 C    0.792670    9.644329    9.275667
 C   -6.227330   -4.395671   -2.255667
 C   -6.227330    9.644329   -2.255667
 C    7.812670   -4.395671   -2.255667
 C    7.812670    9.644329   -2.255667
 C   -7.812670   -9.644329    2.255666
 C   -7.812670    4.395671    2.255666
 C    6.227330   -9.644329    2.255666
 C    6.227330    4.395671    2.255666
 C    2.255666    0.792670   -2.624329
 C   -2.255667   -0.792670    2.624329
 C   -4.764333   -7.812670    2.624329
 C   -4.764333    6.227330    2.624329
 C    9.275667   -7.812670    2.624329
 C    9.275667    6.227330    2.624329
 C   -9.275666   -6.227330   -2.624329
 C   -9.275666    7.812670   -2.624329
 C    4.764334   -6.227330   -2.624329
 C    4.764334    7.812670   -2.624329
 C   -9.275666   -0.792670   -9.644329
 C   -9.275666   -0.792670    4.395671
 C    4.764334   -0.792670   -9.644329
 C    4.764334   -0.792670    4.395671
 C   -4.764333    0.792670   -4.395671
 C   -4.764333    0.792670    9.644329
 C    9.275667    0.792670   -4.395671
 C    9.275667    0.792670    9.644329
 C   -2.255667   -6.227330   -4.395671
 C   -2.255667   -6.227330    9.644329
 C   -2.255667    7.812670   -4.395671
 C   -2.255667    7.812670    9.644329
 C    2.255666   -7.812670   -9.644329
 C    2.255666   -7.812670    4.395671
 C    2.255666    6.227330   -9.644329
 C    2.255666    6.227330    4.395671
 C   -2.624329    2.255666    0.792670
 C    2.624329   -2.255667   -0.792670
 C    2.624329   -4.764333   -7.812670
 C    2.624329   -4.764333    6.227330
 C    2.624329    9.275667   -7.812670
 C    2.624329    9.275667    6.227330
 C   -2.624329   -9.275666   -6.227330
 C   -2.624329   -9.275666    7.812670
 C   -2.624329    4.764334   -6.227330
 C   -2.624329    4.764334    7.812670
 C   -9.644329   -9.275666   -0.792670
 C   -9.644329    4.764334   -0.792670
 C    4.395671   -9.275666   -0.792670
 C    4.395671    4.764334   -0.792670
 C   -4.395671   -4.764333    0.792670
 C   -4.395671    9.275667    0.792670
 C    9.644329   -4.764333    0.792670
 C    9.644329    9.275667    0.792670
 C   -4.395671   -2.255667   -6.227330
 C   -4.395671   -2.255667    7.812670
 C    9.644329   -2.255667   -6.227330
 C    9.644329   -2.255667    7.812670
 C   -9.644329    2.255666   -7.812670
 C   -9.644329    2.255666    6.227330
 C    4.395671    2.255666   -7.812670
 C    4.395671    2.255666    6.227330
 C    0.213338   -3.541659    0.045335
 C   -0.213338    3.541660   -0.045336
 C   -7.233338    3.541660   -6.974665
 C   -7.233338    3.541660    7.065335
 C    6.806662    3.541660   -6.974665
 C    6.806662    3.541660    7.065335
 C   -6.806662   -3.541659   -7.065335
 C   -6.806662   -3.541659    6.974665
 C    7.233338   -3.541659   -7.065335
 C    7.233338   -3.541659    6.974665
 C   -0.213338  -10.561660   -7.065335
 C   -0.213338  -10.561660    6.974665
 C   -0.213338    3.478340   -7.065335
 C   -0.213338    3.478340    6.974665
 C    0.213338   -3.478340   -6.974665
 C    0.213338   -3.478340    7.065335
 C    0.213338   10.561660   -6.974665
 C    0.213338   10.561660    7.065335
 C   -6.806662   -3.478340   -0.045336
 C   -6.806662   10.561660   -0.045336
 C    7.233338   -3.478340   -0.045336
 C    7.233338   10.561660   -0.045336
 C   -7.233338  -10.561660    0.045335
 C   -7.233338    3.478340    0.045335
 C    6.806662  -10.561660    0.045335
 C    6.806662    3.478340    0.045335
 C    0.045335    0.213338   -3.541659
 C   -0.045336   -0.213338    3.541660
 C   -6.974665   -7.233338    3.541660
 C   -6.974665    6.806662    3.541660
 C    7.065335   -7.233338    3.541660
 C    7.065335    6.806662    3.541660
 C   -7.065335   -6.806662   -3.541659
 C   -7.065335    7.233338   -3.541659
 C    6.974665   -6.806662   -3.541659
 C    6.974665    7.233338   -3.541659
 C   -7.065335   -0.213338  -10.561660
 C   -7.065335   -0.213338    3.478340
 C    6.974665   -0.213338  -10.561660
 C    6.974665   -0.213338    3.478340
 C   -6.974665    0.213338   -3.478340
 C   -6.974665    0.213338   10.561660
 C    7.065335    0.213338   -3.478340
 C    7.065335    0.213338   10.561660
 C   -0.045336   -6.806662   -3.478340
 C   -0.045336   -6.806662   10.561660
 C   -0.045336    7.233338   -3.478340
 C   -0.045336    7.233338   10.561660
 C    0.045335   -7.233338  -10.561660
 C    0.045335   -7.233338    3.478340
 C    0.045335    6.806662  -10.561660
 C    0.045335    6.806662    3.478340
 C   -3.541659    0.045335    0.213338
 C    3.541660   -0.045336   -0.213338
 C    3.541660   -6.974665   -7.233338
 C    3.541660   -6.974665    6.806662
 C    3.541660    7.065335   -7.233338
 C    3.541660    7.065335    6.806662
 C   -3.541659   -7.065335   -6.806662
 C   -3.541659   -7.065335    7.233338
 C   -3.541659    6.974665   -6.806662
 C   -3.541659    6.974665    7.233338
 C  -10.561660   -7.065335   -0.213338
 C  -10.561660    6.974665   -0.213338
 C    3.478340   -7.065335   -0.213338
 C    3.478340    6.974665   -0.213338
 C   -3.478340   -6.974665    0.213338
 C   -3.478340    7.065335    0.213338
 C   10.561660   -6.974665    0.213338
 C   10.561660    7.065335    0.213338
 C   -3.478340   -0.045336   -6.806662
 C   -3.478340   -0.045336    7.233338
 C   10.561660   -0.045336   -6.806662
 C   10.561660   -0.045336    7.233338
 C  -10.561660    0.045335   -7.233338
 C  -10.561660    0.045335    6.806662
 C    3.478340    0.045335   -7.233338
 C    3.478340    0.045335    6.806662
 C    1.186001   -3.194001    0.990999
 C   -1.186001    3.194002   -0.990999
 C   -8.206001    3.194002   -6.029000
 C   -8.206001    3.194002    8.011000
 C    5.833999    3.194002   -6.029000
 C    5.833999    3.194002    8.011000
 C   -5.833999   -3.194001   -8.011000
 C   -5.833999   -3.194001    6.029001
 C    8.206001   -3.194001   -8.011000
 C    8.206001   -3.194001    6.029001
 C   -1.186001  -10.214002   -8.011000
 C   -1.186001  -10.214002    6.029001
 C   -1.186001    3.825999   -8.011000
 C   -1.186001    3.825999    6.029001
 C    1.186001   -3.825998   -6.029000
 C    1.186001   -3.825998    8.011000
 C    1.186001   10.214002   -6.029000
 C    1.186001   10.214002    8.011000
 C   -5.833999   -3.825998   -0.990999
 C   -5.833999   10.214002   -0.990999
 C    8.206001   -3.825998   -0.990999
 C    8.206001   10.214002   -0.990999
 C   -8.206001  -10.214002    0.990999
 C   -8.206001    3.825999    0.990999
 C    5.833999  -10.214002    0.990999
 C    5.833999    3.825999    0.990999
 C    0.990999    1.186001   -3.194001
 C   -0.990999   -1.186001    3.194002
 C   -6.029000   -8.206001    3.194002
 C   -6.029000    5.833999    3.194002
 C    8.011000   -8.206001    3.194002
 C    8.011000    5.833999    3.194002
 C   -8.011000   -5.833999   -3.194001
 C   -8.011000    8.206001   -3.194001
 C    6.029001   -5.833999   -3.194001
 C    6.029001    8.206001   -3.194001
 C   -8.011000   -1.186001  -10.214002
 C   -8.011000   -1.186001    3.825999
 C    6.029001   -1.186001  -10.214002
 C    6.029001   -1.186001    3.825999
 C   -6.029000    1.186001   -3.825998
 C   -6.029000    1.186001   10.214002
 C    8.011000    1.186001   -3.825998
 C    8.011000    1.186001   10.214002
 C   -0.990999   -5.833999   -3.825998
 C   -0.990999   -5.833999   10.214002
 C   -0.990999    8.206001   -3.825998
 C   -0.990999    8.206001   10.214002
 C    0.990999   -8.206001  -10.214002
 C    0.990999   -8.206001    3.825999
 C    0.990999    5.833999  -10.214002
 C    0.990999    5.833999    3.825999
 C   -3.194001    0.990999    1.186001
 C    3.194002   -0.990999   -1.186001
 C    3.194002   -6.029000   -8.206001
 C    3.194002   -6.029000    5.833999
 C    3.194002    8.011000   -8.206001
 C    3.194002    8.011000    5.833999
 C   -3.194001   -8.011000   -5.833999
 C   -3.194001   -8.011000    8.206001
 C   -3.194001    6.029001   -5.833999
 C   -3.194001    6.029001    8.206001
 C  -10.214002   -8.011000   -1.186001
 C  -10.214002    6.029001   -1.186001
 C    3.825999   -8.011000   -1.186001
 C    3.825999    6.029001   -1.186001
 C   -3.825998   -6.029000    1.186001
 C   -3.825998    8.011000    1.186001
 C   10.214002   -6.029000    1.186001
 C   10.214002    8.011000    1.186001
 C   -3.825998   -0.990999   -5.833999
 C   -3.825998   -0.990999    8.206001
 C   10.214002   -0.990999   -5.833999
 C   10.214002   -0.990999    8.206001
 C  -10.214002    0.990999   -8.206001
 C  -10.214002    0.990999    5.833999
 C    3.825999    0.990999   -8.206001
 C    3.825999    0.990999    5.833999
